<?xml version="1.0" encoding="UTF-8"?>

<!-- generated on 10/11/21 19:02:17 by Eclipse SUMO netedit Version 1.6.0
<configuration xmlns:xsi="http://www.w3.org/2001/XMLSchema-instance" xsi:noNamespaceSchemaLocation="http://sumo.dlr.de/xsd/netconvertConfiguration.xsd">

    <input>
        <sumo-net-file value="C:\Users\HH\Desktop\sumo_file_horizon\sumo_file_horizon_west%20junction\IC_true.net.xml"/>
    </input>

    <output>
        <output-file value="C:\Users\HH\Desktop\sumo_file_horizon\sumo_file_horizon_west%20junction\IC_true.net.xml"/>
    </output>

    <processing>
        <geometry.min-radius.fix.railways value="false"/>
        <geometry.max-grade.fix value="false"/>
        <offset.disable-normalization value="true"/>
        <lefthand value="false"/>
    </processing>

    <junctions>
        <no-internal-links value="false"/>
        <no-turnarounds value="true"/>
        <junctions.corner-detail value="5"/>
        <junctions.limit-turn-speed value="5.5"/>
        <rectangular-lane-cut value="false"/>
    </junctions>

    <pedestrian>
        <walkingareas value="false"/>
    </pedestrian>

    <report>
        <aggregate-warnings value="5"/>
    </report>

</configuration>
-->

<net version="1.6" junctionCornerDetail="5" limitTurnSpeed="5.50" xmlns:xsi="http://www.w3.org/2001/XMLSchema-instance" xsi:noNamespaceSchemaLocation="http://sumo.dlr.de/xsd/net_file.xsd">

    <location netOffset="-425332.75,-4419364.92" convBoundary="0.00,15973.84,11167.45,16967.68" origBoundary="116.124415,39.922443,116.328583,40.102370" projParameter="+proj=utm +zone=50 +ellps=WGS84 +datum=WGS84 +units=m +no_defs"/>

    <type id="highway.bridleway" priority="1" numLanes="1" speed="2.78" allow="pedestrian" oneway="1" width="2.00"/>
    <type id="highway.bus_guideway" priority="1" numLanes="1" speed="27.78" allow="bus" oneway="1"/>
    <type id="highway.cycleway" priority="1" numLanes="1" speed="8.33" allow="bicycle" oneway="0" width="1.00"/>
    <type id="highway.footway" priority="1" numLanes="1" speed="2.78" allow="pedestrian" oneway="1" width="2.00"/>
    <type id="highway.ford" priority="1" numLanes="1" speed="2.78" allow="army" oneway="0"/>
    <type id="highway.living_street" priority="2" numLanes="1" speed="2.78" disallow="tram rail_urban rail rail_electric rail_fast ship" oneway="0"/>
    <type id="highway.motorway" priority="14" numLanes="2" speed="39.44" allow="private emergency authority army vip passenger hov taxi bus coach delivery truck trailer motorcycle evehicle custom1 custom2" oneway="1"/>
    <type id="highway.motorway_link" priority="9" numLanes="1" speed="22.22" allow="private emergency authority army vip passenger hov taxi bus coach delivery truck trailer motorcycle evehicle custom1 custom2" oneway="1"/>
    <type id="highway.path" priority="1" numLanes="1" speed="2.78" allow="pedestrian bicycle" oneway="1" width="2.00"/>
    <type id="highway.pedestrian" priority="1" numLanes="1" speed="2.78" allow="pedestrian" oneway="1" width="2.00"/>
    <type id="highway.primary" priority="12" numLanes="2" speed="27.78" disallow="tram rail_urban rail rail_electric rail_fast ship" oneway="0"/>
    <type id="highway.primary_link" priority="7" numLanes="1" speed="22.22" disallow="tram rail_urban rail rail_electric rail_fast ship" oneway="0"/>
    <type id="highway.raceway" priority="15" numLanes="2" speed="83.33" allow="vip" oneway="0"/>
    <type id="highway.residential" priority="3" numLanes="1" speed="13.89" disallow="tram rail_urban rail rail_electric rail_fast ship" oneway="0"/>
    <type id="highway.secondary" priority="11" numLanes="1" speed="27.78" disallow="tram rail_urban rail rail_electric rail_fast ship" oneway="0"/>
    <type id="highway.secondary_link" priority="6" numLanes="1" speed="22.22" disallow="tram rail_urban rail rail_electric rail_fast ship" oneway="0"/>
    <type id="highway.service" priority="1" numLanes="1" speed="5.56" allow="pedestrian delivery bicycle" oneway="0"/>
    <type id="highway.stairs" priority="1" numLanes="1" speed="1.39" allow="pedestrian" oneway="1" width="2.00"/>
    <type id="highway.step" priority="1" numLanes="1" speed="1.39" allow="pedestrian" oneway="1" width="2.00"/>
    <type id="highway.steps" priority="1" numLanes="1" speed="1.39" allow="pedestrian" oneway="1" width="2.00"/>
    <type id="highway.tertiary" priority="10" numLanes="1" speed="22.22" disallow="tram rail_urban rail rail_electric rail_fast ship" oneway="0"/>
    <type id="highway.tertiary_link" priority="5" numLanes="1" speed="22.22" disallow="tram rail_urban rail rail_electric rail_fast ship" oneway="0"/>
    <type id="highway.track" priority="1" numLanes="1" speed="5.56" disallow="tram rail_urban rail rail_electric rail_fast ship" oneway="0"/>
    <type id="highway.trunk" priority="13" numLanes="2" speed="27.78" disallow="pedestrian bicycle tram rail_urban rail rail_electric rail_fast ship" oneway="0"/>
    <type id="highway.trunk_link" priority="8" numLanes="1" speed="22.22" disallow="pedestrian bicycle tram rail_urban rail rail_electric rail_fast ship" oneway="0"/>
    <type id="highway.unclassified" priority="4" numLanes="1" speed="13.89" disallow="tram rail_urban rail rail_electric rail_fast ship" oneway="0"/>
    <type id="highway.unsurfaced" priority="1" numLanes="1" speed="8.33" disallow="tram rail_urban rail rail_electric rail_fast ship" oneway="0"/>
    <type id="railway.highspeed" priority="21" numLanes="1" speed="69.44" allow="rail_fast" oneway="1"/>
    <type id="railway.light_rail" priority="19" numLanes="1" speed="27.78" allow="rail_urban" oneway="1"/>
    <type id="railway.preserved" priority="16" numLanes="1" speed="27.78" allow="rail" oneway="1"/>
    <type id="railway.rail" priority="20" numLanes="1" speed="44.44" allow="rail" oneway="1"/>
    <type id="railway.subway" priority="18" numLanes="1" speed="27.78" allow="rail_urban" oneway="1"/>
    <type id="railway.tram" priority="17" numLanes="1" speed="13.89" allow="tram" oneway="1"/>

    <edge id=":JC1_0" function="internal">
        <lane id=":JC1_0_0" index="0" allow="bicycle" speed="6.74" length="4.13" width="2.00" shape="9723.96,16715.79 9720.68,16714.83 9719.97,16714.80"/>
    </edge>
    <edge id=":JC1_1" function="internal">
        <lane id=":JC1_1_0" index="0" allow="bicycle" speed="13.89" length="51.38" width="2.00" shape="9723.96,16715.79 9677.21,16694.47"/>
    </edge>
    <edge id=":JC1_2" function="internal">
        <lane id=":JC1_2_0" index="0" allow="bicycle" speed="16.68" length="62.06" width="2.00" shape="9723.96,16715.79 9716.39,16706.03 9708.09,16687.05 9701.97,16667.12 9701.32,16658.99"/>
    </edge>
    <edge id=":JC1_3" function="internal">
        <lane id=":JC1_3_0" index="0" disallow="pedestrian bicycle tram rail_urban rail rail_electric rail_fast ship" speed="8.65" length="9.20" shape="9726.04,16710.37 9721.60,16709.35 9717.88,16709.98 9717.19,16710.50"/>
    </edge>
    <edge id=":JC1_4" function="internal">
        <lane id=":JC1_4_0" index="0" disallow="pedestrian bicycle tram rail_urban rail rail_electric rail_fast ship" speed="9.28" length="11.38" shape="9726.04,16710.37 9720.29,16708.85 9715.65,16709.10 9714.97,16709.49"/>
    </edge>
    <edge id=":JC1_5" function="internal">
        <lane id=":JC1_5_0" index="0" disallow="pedestrian bicycle" speed="13.89" length="51.31" shape="9726.04,16710.37 9678.13,16692.04"/>
        <lane id=":JC1_5_1" index="1" disallow="pedestrian bicycle" speed="13.89" length="51.31" shape="9727.19,16707.39 9679.27,16689.05"/>
        <lane id=":JC1_5_2" index="2" disallow="pedestrian bicycle" speed="13.89" length="51.31" shape="9728.34,16704.40 9680.41,16686.05"/>
        <lane id=":JC1_5_3" index="3" disallow="pedestrian bicycle" speed="13.89" length="51.31" shape="9729.49,16701.42 9681.55,16683.06"/>
    </edge>
    <edge id=":JC1_9" function="internal">
        <lane id=":JC1_9_0" index="0" disallow="pedestrian bicycle tram rail_urban rail rail_electric rail_fast ship" speed="14.49" length="45.63" shape="9730.64,16698.43 9718.34,16691.68 9711.18,16682.88 9709.15,16672.03 9711.31,16663.06"/>
    </edge>
    <edge id=":JC1_10" function="internal">
        <lane id=":JC1_10_0" index="0" disallow="pedestrian bicycle tram rail_urban rail rail_electric rail_fast ship" speed="14.12" length="43.02" shape="9730.64,16698.43 9719.65,16692.19 9713.41,16683.76 9711.94,16673.14 9714.22,16664.25"/>
    </edge>
    <edge id=":JC1_44" function="internal">
        <lane id=":JC1_44_0" index="0" allow="bicycle" speed="6.74" length="5.91" width="2.00" shape="9719.97,16714.80 9718.10,16714.73 9716.22,16715.50 9715.05,16717.14"/>
    </edge>
    <edge id=":JC1_45" function="internal">
        <lane id=":JC1_45_0" index="0" allow="bicycle" speed="16.68" length="4.48" width="2.00" shape="9701.32,16658.99 9700.96,16654.53"/>
    </edge>
    <edge id=":JC1_46" function="internal">
        <lane id=":JC1_46_0" index="0" disallow="pedestrian bicycle tram rail_urban rail rail_electric rail_fast ship" speed="8.65" length="7.41" shape="9717.19,16710.50 9714.89,16712.25 9712.63,16716.17"/>
    </edge>
    <edge id=":JC1_47" function="internal">
        <lane id=":JC1_47_0" index="0" disallow="pedestrian bicycle tram rail_urban rail rail_electric rail_fast ship" speed="9.28" length="7.86" shape="9714.97,16709.49 9712.10,16711.15 9709.66,16714.98"/>
    </edge>
    <edge id=":JC1_48" function="internal">
        <lane id=":JC1_48_0" index="0" disallow="pedestrian bicycle tram rail_urban rail rail_electric rail_fast ship" speed="14.49" length="4.05" shape="9711.31,16663.06 9712.26,16659.13"/>
    </edge>
    <edge id=":JC1_49" function="internal">
        <lane id=":JC1_49_0" index="0" disallow="pedestrian bicycle tram rail_urban rail rail_electric rail_fast ship" speed="14.12" length="4.04" shape="9714.22,16664.25 9715.22,16660.34"/>
    </edge>
    <edge id=":JC1_11" function="internal">
        <lane id=":JC1_11_0" index="0" allow="bicycle" speed="5.75" length="2.46" width="2.00" shape="9737.08,16669.24 9736.59,16671.19 9736.66,16671.63"/>
    </edge>
    <edge id=":JC1_12" function="internal">
        <lane id=":JC1_12_0" index="0" allow="bicycle" speed="27.78" length="52.73" width="2.00" shape="9737.08,16669.24 9715.05,16717.14"/>
    </edge>
    <edge id=":JC1_13" function="internal">
        <lane id=":JC1_13_0" index="0" allow="bicycle" speed="16.89" length="3.32" width="2.00" shape="9737.08,16669.24 9734.51,16671.34"/>
    </edge>
    <edge id=":JC1_14" function="internal">
        <lane id=":JC1_14_0" index="0" disallow="pedestrian bicycle" speed="7.97" length="4.16" shape="9734.67,16668.26 9733.49,16672.25"/>
    </edge>
    <edge id=":JC1_15" function="internal">
        <lane id=":JC1_15_0" index="0" disallow="pedestrian bicycle" speed="8.67" length="4.94" shape="9734.67,16668.26 9733.17,16672.96"/>
    </edge>
    <edge id=":JC1_16" function="internal">
        <lane id=":JC1_16_0" index="0" disallow="pedestrian bicycle tram rail_urban rail rail_electric rail_fast ship" speed="27.78" length="52.77" shape="9734.67,16668.26 9712.63,16716.17"/>
        <lane id=":JC1_16_1" index="1" disallow="pedestrian bicycle tram rail_urban rail rail_electric rail_fast ship" speed="27.78" length="52.77" shape="9731.71,16667.05 9709.66,16714.98"/>
        <lane id=":JC1_16_2" index="2" disallow="pedestrian bicycle tram rail_urban rail rail_electric rail_fast ship" speed="27.78" length="52.77" shape="9728.74,16665.84 9706.69,16713.79"/>
        <lane id=":JC1_16_3" index="3" disallow="pedestrian bicycle tram rail_urban rail rail_electric rail_fast ship" speed="27.78" length="52.77" shape="9725.78,16664.64 9703.72,16712.61"/>
    </edge>
    <edge id=":JC1_20" function="internal">
        <lane id=":JC1_20_0" index="0" disallow="pedestrian bicycle" speed="15.04" length="5.95" shape="9722.82,16663.43 9719.87,16668.60"/>
    </edge>
    <edge id=":JC1_21" function="internal">
        <lane id=":JC1_21_0" index="0" disallow="pedestrian bicycle" speed="14.67" length="5.98" shape="9722.82,16663.43 9719.78,16668.58"/>
    </edge>
    <edge id=":JC1_50" function="internal">
        <lane id=":JC1_50_0" index="0" allow="bicycle" speed="5.75" length="4.86" width="2.00" shape="9736.66,16671.63 9736.85,16672.81 9737.86,16674.12 9739.62,16675.10"/>
    </edge>
    <edge id=":JC1_51" function="internal">
        <lane id=":JC1_51_0" index="0" allow="bicycle" speed="16.89" length="62.72" width="2.00" shape="9734.51,16671.34 9727.48,16677.10 9709.00,16686.12 9689.60,16693.02 9677.21,16694.47"/>
    </edge>
    <edge id=":JC1_52" function="internal">
        <lane id=":JC1_52_0" index="0" disallow="pedestrian bicycle" speed="7.97" length="10.11" shape="9733.49,16672.25 9733.38,16672.64 9733.42,16676.14 9734.81,16678.76 9737.53,16680.51"/>
    </edge>
    <edge id=":JC1_53" function="internal">
        <lane id=":JC1_53_0" index="0" disallow="pedestrian bicycle" speed="8.67" length="12.17" shape="9733.17,16672.96 9732.85,16673.94 9732.53,16678.37 9733.71,16681.56 9736.38,16683.50"/>
    </edge>
    <edge id=":JC1_54" function="internal">
        <lane id=":JC1_54_0" index="0" disallow="pedestrian bicycle" speed="15.04" length="45.89" shape="9719.87,16668.60 9715.56,16676.13 9706.27,16683.64 9694.93,16685.95 9681.55,16683.06"/>
    </edge>
    <edge id=":JC1_55" function="internal">
        <lane id=":JC1_55_0" index="0" disallow="pedestrian bicycle" speed="14.67" length="43.31" shape="9719.78,16668.58 9716.09,16674.83 9707.16,16681.41 9696.02,16683.15 9682.69,16680.07"/>
    </edge>
    <edge id=":JC1_22" function="internal">
        <lane id=":JC1_22_0" index="0" allow="bicycle" speed="7.72" length="9.23" width="2.00" shape="9690.44,16659.70 9693.83,16660.42 9696.71,16659.79 9698.88,16658.00"/>
    </edge>
    <edge id=":JC1_23" function="internal">
        <lane id=":JC1_23_0" index="0" allow="bicycle" speed="13.89" length="51.53" width="2.00" shape="9690.44,16659.70 9739.62,16675.10"/>
    </edge>
    <edge id=":JC1_24" function="internal">
        <lane id=":JC1_24_0" index="0" allow="bicycle" speed="16.33" length="59.11" width="2.00" shape="9690.44,16659.70 9698.25,16668.85 9707.10,16686.51 9713.76,16705.13 9714.56,16712.64"/>
    </edge>
    <edge id=":JC1_25" function="internal">
        <lane id=":JC1_25_0" index="0" disallow="pedestrian bicycle tram rail_urban rail rail_electric rail_fast ship" speed="8.88" length="4.95" shape="9689.52,16662.13 9694.00,16663.09 9694.36,16663.02"/>
    </edge>
    <edge id=":JC1_26" function="internal">
        <lane id=":JC1_26_0" index="0" disallow="pedestrian bicycle tram rail_urban rail rail_electric rail_fast ship" speed="9.48" length="6.67" shape="9689.52,16662.13 9695.31,16663.60 9696.00,16663.54"/>
    </edge>
    <edge id=":JC1_27" function="internal">
        <lane id=":JC1_27_0" index="0" disallow="pedestrian bicycle" speed="13.89" length="51.40" shape="9689.52,16662.13 9737.53,16680.51"/>
        <lane id=":JC1_27_1" index="1" disallow="pedestrian bicycle" speed="13.89" length="51.40" shape="9688.38,16665.12 9736.38,16683.50"/>
        <lane id=":JC1_27_2" index="2" disallow="pedestrian bicycle" speed="13.89" length="51.40" shape="9687.24,16668.11 9735.23,16686.48"/>
        <lane id=":JC1_27_3" index="3" disallow="pedestrian bicycle" speed="13.89" length="51.40" shape="9686.10,16671.10 9734.08,16689.47"/>
    </edge>
    <edge id=":JC1_31" function="internal">
        <lane id=":JC1_31_0" index="0" disallow="pedestrian tram rail_urban rail rail_electric rail_fast ship" speed="14.41" length="44.97" shape="9684.96,16674.09 9697.25,16680.73 9704.48,16689.36 9706.63,16699.99 9704.63,16708.66"/>
    </edge>
    <edge id=":JC1_32" function="internal">
        <lane id=":JC1_32_0" index="0" disallow="pedestrian tram rail_urban rail rail_electric rail_fast ship" speed="14.03" length="42.35" shape="9684.96,16674.09 9695.95,16680.23 9702.24,16688.50 9703.84,16698.89 9701.72,16707.50"/>
    </edge>
    <edge id=":JC1_56" function="internal">
        <lane id=":JC1_56_0" index="0" allow="bicycle" speed="7.72" length="4.06" width="2.00" shape="9698.88,16658.00 9699.09,16657.83 9700.96,16654.53"/>
    </edge>
    <edge id=":JC1_57" function="internal">
        <lane id=":JC1_57_0" index="0" allow="bicycle" speed="16.33" length="4.53" width="2.00" shape="9714.56,16712.64 9715.05,16717.14"/>
    </edge>
    <edge id=":JC1_58" function="internal">
        <lane id=":JC1_58_0" index="0" disallow="pedestrian bicycle tram rail_urban rail rail_electric rail_fast ship" speed="8.88" length="12.46" shape="9694.36,16663.02 9697.81,16662.31 9700.93,16659.78 9703.37,16655.51"/>
    </edge>
    <edge id=":JC1_59" function="internal">
        <lane id=":JC1_59_0" index="0" disallow="pedestrian bicycle tram rail_urban rail rail_electric rail_fast ship" speed="9.48" length="13.32" shape="9696.00,16663.54 9700.05,16663.18 9703.72,16660.89 9706.33,16656.71"/>
    </edge>
    <edge id=":JC1_60" function="internal">
        <lane id=":JC1_60_0" index="0" disallow="pedestrian tram rail_urban rail rail_electric rail_fast ship" speed="14.41" length="4.05" shape="9704.63,16708.66 9703.72,16712.61"/>
    </edge>
    <edge id=":JC1_61" function="internal">
        <lane id=":JC1_61_0" index="0" disallow="pedestrian tram rail_urban rail rail_electric rail_fast ship" speed="14.03" length="4.04" shape="9701.72,16707.50 9700.75,16711.42"/>
    </edge>
    <edge id=":JC1_33" function="internal">
        <lane id=":JC1_33_0" index="0" allow="bicycle" speed="6.47" length="3.68" width="2.00" shape="9678.84,16702.65 9679.72,16699.68 9679.72,16699.10"/>
    </edge>
    <edge id=":JC1_34" function="internal">
        <lane id=":JC1_34_0" index="0" allow="bicycle" speed="27.78" length="52.97" width="2.00" shape="9678.84,16702.65 9700.96,16654.53"/>
    </edge>
    <edge id=":JC1_35" function="internal">
        <lane id=":JC1_35_0" index="0" allow="bicycle" speed="17.04" length="5.86" width="2.00" shape="9678.84,16702.65 9683.31,16698.86"/>
    </edge>
    <edge id=":JC1_36" function="internal">
        <lane id=":JC1_36_0" index="0" disallow="pedestrian bicycle tram rail_urban rail rail_electric rail_fast ship" speed="7.81" length="3.84" shape="9681.25,16703.62 9682.29,16699.92"/>
    </edge>
    <edge id=":JC1_37" function="internal">
        <lane id=":JC1_37_0" index="0" disallow="pedestrian bicycle tram rail_urban rail rail_electric rail_fast ship" speed="8.52" length="4.59" shape="9681.25,16703.62 9682.61,16699.24"/>
    </edge>
    <edge id=":JC1_38" function="internal">
        <lane id=":JC1_38_0" index="0" disallow="pedestrian bicycle tram rail_urban rail rail_electric rail_fast ship" speed="27.78" length="52.92" shape="9681.25,16703.62 9703.37,16655.51"/>
        <lane id=":JC1_38_1" index="1" disallow="pedestrian tram rail_urban rail rail_electric rail_fast ship" speed="27.78" length="52.92" shape="9684.22,16704.81 9706.33,16656.71"/>
        <lane id=":JC1_38_2" index="2" disallow="pedestrian tram rail_urban rail rail_electric rail_fast ship" speed="27.78" length="52.92" shape="9687.19,16705.99 9709.30,16657.92"/>
        <lane id=":JC1_38_3" index="3" disallow="pedestrian bicycle tram rail_urban rail rail_electric rail_fast ship" speed="27.78" length="52.92" shape="9690.16,16707.18 9712.26,16659.13"/>
    </edge>
    <edge id=":JC1_42" function="internal">
        <lane id=":JC1_42_0" index="0" disallow="pedestrian bicycle tram rail_urban rail rail_electric rail_fast ship" speed="14.90" length="8.48" shape="9693.13,16708.37 9697.32,16701.00"/>
    </edge>
    <edge id=":JC1_43" function="internal">
        <lane id=":JC1_43_0" index="0" disallow="pedestrian bicycle tram rail_urban rail rail_electric rail_fast ship" speed="14.53" length="8.58" shape="9693.13,16708.37 9697.48,16700.97"/>
    </edge>
    <edge id=":JC1_62" function="internal">
        <lane id=":JC1_62_0" index="0" allow="bicycle" speed="6.47" length="5.74" width="2.00" shape="9679.72,16699.10 9679.74,16697.32 9678.91,16695.58 9677.21,16694.47"/>
    </edge>
    <edge id=":JC1_63" function="internal">
        <lane id=":JC1_63_0" index="0" allow="bicycle" speed="17.04" length="61.92" width="2.00" shape="9683.31,16698.86 9688.56,16694.42 9707.35,16684.58 9727.08,16676.89 9739.62,16675.10"/>
    </edge>
    <edge id=":JC1_64" function="internal">
        <lane id=":JC1_64_0" index="0" disallow="pedestrian bicycle tram rail_urban rail rail_electric rail_fast ship" speed="7.81" length="9.79" shape="9682.29,16699.92 9682.41,16699.51 9682.28,16696.21 9680.85,16693.72 9678.13,16692.04"/>
    </edge>
    <edge id=":JC1_65" function="internal">
        <lane id=":JC1_65_0" index="0" disallow="pedestrian bicycle tram rail_urban rail rail_electric rail_fast ship" speed="8.52" length="11.86" shape="9682.61,16699.24 9682.93,16698.21 9683.15,16693.98 9681.94,16690.92 9679.27,16689.05"/>
    </edge>
    <edge id=":JC1_66" function="internal">
        <lane id=":JC1_66_0" index="0" disallow="pedestrian bicycle tram rail_urban rail rail_electric rail_fast ship" speed="14.90" length="42.80" shape="9697.32,16701.00 9700.20,16695.93 9709.38,16688.63 9720.67,16686.48 9734.08,16689.47"/>
    </edge>
    <edge id=":JC1_67" function="internal">
        <lane id=":JC1_67_0" index="0" disallow="pedestrian bicycle tram rail_urban rail rail_electric rail_fast ship" speed="14.53" length="40.15" shape="9697.48,16700.97 9699.68,16697.23 9708.50,16690.86 9719.58,16689.27 9732.93,16692.46"/>
    </edge>
    <edge id=":JC1_c0" function="crossing" crossingEdges="EE2 EW2">
        <lane id=":JC1_c0_0" index="0" allow="pedestrian" speed="1.00" length="45.60" width="4.00" shape="9738.11,16673.45 9721.73,16716.00"/>
    </edge>
    <edge id=":JC1_c1" function="crossing" crossingEdges="ES3 EN3">
        <lane id=":JC1_c1_0" index="0" allow="pedestrian" speed="1.00" length="41.00" width="4.00" shape="9699.28,16656.00 9737.25,16671.47"/>
    </edge>
    <edge id=":JC1_c2" function="crossing" crossingEdges="EW1 EE1">
        <lane id=":JC1_c2_0" index="0" allow="pedestrian" speed="1.00" length="39.20" width="4.00" shape="9678.72,16696.11 9692.67,16659.48"/>
    </edge>
    <edge id=":JC1_c3" function="crossing" crossingEdges="EN2 ES2">
        <lane id=":JC1_c3_0" index="0" allow="pedestrian" speed="1.00" length="41.00" width="4.00" shape="9716.72,16715.65 9678.65,16700.42"/>
    </edge>
    <edge id=":JC1_w0" function="walkingarea">
        <lane id=":JC1_w0_0" index="0" allow="pedestrian" speed="1.00" length="4.64" width="4.00" shape="9715.97,16717.51 9717.83,16718.25 9722.88,16718.59 9723.60,16716.72 9721.63,16716.07 9719.94,16715.73 9718.52,16715.70 9717.39,16715.99 9716.54,16716.59"/>
    </edge>
    <edge id=":JC1_w1" function="walkingarea">
        <lane id=":JC1_w1_0" index="0" allow="pedestrian" speed="1.00" length="2.88" width="4.00" shape="9739.97,16674.16 9740.69,16672.30 9739.86,16670.37 9738.01,16669.61 9737.69,16670.65 9737.63,16671.58 9737.83,16672.39 9738.29,16673.09 9739.00,16673.68"/>
    </edge>
    <edge id=":JC1_w2" function="walkingarea">
        <lane id=":JC1_w2_0" index="0" allow="pedestrian" speed="1.00" length="6.30" width="4.00" shape="9700.03,16654.15 9698.18,16653.40 9691.51,16656.90 9690.80,16658.76 9692.82,16659.31 9694.65,16659.33 9696.29,16658.82 9697.73,16657.79 9698.98,16656.23"/>
    </edge>
    <edge id=":JC1_w3" function="walkingarea">
        <lane id=":JC1_w3_0" index="0" allow="pedestrian" speed="1.00" length="4.18" width="4.00" shape="9676.85,16695.40 9676.14,16697.27 9676.05,16701.54 9677.91,16702.28 9678.50,16700.53 9678.79,16699.02 9678.77,16697.75 9678.44,16696.72 9677.80,16695.94"/>
    </edge>
    <edge id=":JC10_0" function="internal">
        <lane id=":JC10_0_0" index="0" allow="bicycle" speed="13.89" length="27.05" width="2.00" shape="10662.20,16761.00 10652.48,16786.24"/>
    </edge>
    <edge id=":JC10_1" function="internal">
        <lane id=":JC10_1_0" index="0" allow="bicycle" speed="12.53" length="32.54" width="2.00" shape="10662.20,16761.00 10657.43,16769.69 10650.95,16774.76 10642.76,16776.23 10636.82,16774.93"/>
    </edge>
    <edge id=":JC10_2" function="internal">
        <lane id=":JC10_2_0" index="0" disallow="pedestrian bicycle" speed="13.89" length="27.04" shape="10659.76,16760.09 10650.04,16785.32"/>
        <lane id=":JC10_2_1" index="1" disallow="pedestrian" speed="13.89" length="27.04" shape="10656.76,16758.97 10647.05,16784.20"/>
    </edge>
    <edge id=":JC10_4" function="internal">
        <lane id=":JC10_4_0" index="0" disallow="pedestrian bicycle" speed="10.96" length="23.34" shape="10653.77,16757.85 10649.91,16765.68 10645.30,16770.59 10639.91,16772.58 10637.80,16772.25"/>
    </edge>
    <edge id=":JC10_5" function="internal">
        <lane id=":JC10_5_0" index="0" disallow="pedestrian" speed="10.42" length="20.67" shape="10653.77,16757.85 10650.40,16764.37 10646.13,16768.34 10640.96,16769.76 10638.86,16769.37"/>
    </edge>
    <edge id=":JC10_18" function="internal">
        <lane id=":JC10_18_0" index="0" allow="bicycle" speed="12.53" length="4.04" width="2.00" shape="10636.82,16774.93 10632.87,16774.08"/>
    </edge>
    <edge id=":JC10_19" function="internal">
        <lane id=":JC10_19_0" index="0" disallow="pedestrian bicycle" speed="10.96" length="4.08" shape="10637.80,16772.25 10633.77,16771.64"/>
    </edge>
    <edge id=":JC10_20" function="internal">
        <lane id=":JC10_20_0" index="0" disallow="pedestrian" speed="10.42" length="4.06" shape="10638.86,16769.37 10634.87,16768.63"/>
    </edge>
    <edge id=":JC10_6" function="internal">
        <lane id=":JC10_6_0" index="0" allow="bicycle" speed="5.77" length="2.40" width="2.00" shape="10639.09,16757.18 10641.03,16757.60 10641.44,16757.52"/>
    </edge>
    <edge id=":JC10_7" function="internal">
        <lane id=":JC10_7_0" index="0" allow="bicycle" speed="12.47" length="32.50" width="2.00" shape="10639.09,16757.18 10647.93,16761.95 10653.11,16768.38 10654.63,16776.47 10653.35,16782.29"/>
    </edge>
    <edge id=":JC10_8" function="internal">
        <lane id=":JC10_8_0" index="0" disallow="pedestrian bicycle" speed="7.25" length="7.24" shape="10638.19,16759.62 10641.25,16760.28 10643.79,16759.80 10644.98,16758.84"/>
    </edge>
    <edge id=":JC10_9" function="internal">
        <lane id=":JC10_9_0" index="0" disallow="pedestrian" speed="8.62" length="12.53" shape="10637.08,16762.63 10641.52,16763.58 10645.20,16762.88 10648.13,16760.54 10648.37,16760.11"/>
    </edge>
    <edge id=":JC10_10" function="internal">
        <lane id=":JC10_10_0" index="0" disallow="pedestrian bicycle" speed="11.35" length="25.72" shape="10637.08,16762.63 10644.97,16766.65 10649.76,16771.78 10651.45,16778.00 10650.81,16781.34"/>
    </edge>
    <edge id=":JC10_11" function="internal">
        <lane id=":JC10_11_0" index="0" disallow="pedestrian" speed="10.86" length="23.10" shape="10637.08,16762.63 10643.66,16766.17 10647.51,16770.94 10648.64,16776.95 10647.92,16780.25"/>
    </edge>
    <edge id=":JC10_21" function="internal">
        <lane id=":JC10_21_0" index="0" allow="bicycle" speed="5.77" length="4.84" width="2.00" shape="10641.44,16757.52 10642.64,16757.30 10643.92,16756.27 10644.86,16754.53"/>
    </edge>
    <edge id=":JC10_22" function="internal">
        <lane id=":JC10_22_0" index="0" allow="bicycle" speed="12.47" length="4.04" width="2.00" shape="10653.35,16782.29 10652.48,16786.24"/>
    </edge>
    <edge id=":JC10_23" function="internal">
        <lane id=":JC10_23_0" index="0" disallow="pedestrian bicycle" speed="7.25" length="4.18" shape="10644.98,16758.84 10645.80,16758.19 10647.30,16755.44"/>
    </edge>
    <edge id=":JC10_24" function="internal">
        <lane id=":JC10_24_0" index="0" disallow="pedestrian" speed="8.62" length="4.04" shape="10648.37,16760.11 10650.30,16756.56"/>
    </edge>
    <edge id=":JC10_25" function="internal">
        <lane id=":JC10_25_0" index="0" disallow="pedestrian bicycle" speed="11.35" length="4.06" shape="10650.81,16781.34 10650.04,16785.32"/>
    </edge>
    <edge id=":JC10_26" function="internal">
        <lane id=":JC10_26_0" index="0" disallow="pedestrian" speed="10.86" length="4.04" shape="10647.92,16780.25 10647.05,16784.20"/>
    </edge>
    <edge id=":JC10_12" function="internal">
        <lane id=":JC10_12_0" index="0" allow="bicycle" speed="5.79" length="2.63" width="2.00" shape="10635.63,16779.91 10636.05,16777.96 10635.93,16777.34"/>
    </edge>
    <edge id=":JC10_13" function="internal">
        <lane id=":JC10_13_0" index="0" allow="bicycle" speed="13.89" length="27.01" width="2.00" shape="10635.63,16779.91 10644.86,16754.53"/>
    </edge>
    <edge id=":JC10_14" function="internal">
        <lane id=":JC10_14_0" index="0" disallow="pedestrian bicycle" speed="7.27" length="3.50" shape="10638.06,16780.82 10638.74,16777.74 10638.67,16777.40"/>
    </edge>
    <edge id=":JC10_15" function="internal">
        <lane id=":JC10_15_0" index="0" disallow="pedestrian bicycle" speed="13.89" length="27.02" shape="10638.06,16780.82 10647.30,16755.44"/>
        <lane id=":JC10_15_1" index="1" disallow="pedestrian" speed="13.89" length="27.02" shape="10641.06,16781.95 10650.30,16756.56"/>
    </edge>
    <edge id=":JC10_17" function="internal">
        <lane id=":JC10_17_0" index="0" disallow="pedestrian" speed="4.72" length="6.46" shape="10641.06,16781.95 10643.40,16780.26 10645.18,16780.08 10646.40,16781.39"/>
    </edge>
    <edge id=":JC10_27" function="internal">
        <lane id=":JC10_27_0" index="0" allow="bicycle" speed="5.79" length="4.74" width="2.00" shape="10635.93,16777.34 10635.73,16776.33 10634.67,16775.04 10632.87,16774.08"/>
    </edge>
    <edge id=":JC10_28" function="internal">
        <lane id=":JC10_28_0" index="0" disallow="pedestrian bicycle" speed="7.27" length="8.08" shape="10638.67,16777.40 10638.24,16775.19 10636.59,16773.15 10633.77,16771.64"/>
    </edge>
    <edge id=":JC10_29" function="internal">