<?xml version="1.0" encoding="UTF-8"?>

<!-- generated on 11/13/21 13:25:56 by Eclipse SUMO netedit Version 1.6.0
<configuration xmlns:xsi="http://www.w3.org/2001/XMLSchema-instance" xsi:noNamespaceSchemaLocation="http://sumo.dlr.de/xsd/netconvertConfiguration.xsd">

    <input>
        <sumo-net-file value="C:\Users\HH\Desktop\sumo_file\nets\IC_EN14.net.xml"/>
    </input>

    <output>
        <output-file value="C:\Users\HH\Desktop\sumo_file\nets\IC_EN14.net.xml"/>
    </output>

    <processing>
        <geometry.min-radius.fix.railways value="false"/>
        <geometry.max-grade.fix value="false"/>
        <offset.disable-normalization value="true"/>
        <lefthand value="false"/>
    </processing>

    <junctions>
        <no-internal-links value="false"/>
        <no-turnarounds value="true"/>
        <junctions.corner-detail value="0"/>
        <junctions.limit-turn-speed value="-1"/>
        <rectangular-lane-cut value="false"/>
    </junctions>

    <pedestrian>
        <walkingareas value="false"/>
    </pedestrian>

    <report>
        <aggregate-warnings value="5"/>
    </report>

</configuration>
-->

<net version="1.6" xmlns:xsi="http://www.w3.org/2001/XMLSchema-instance" xsi:noNamespaceSchemaLocation="http://sumo.dlr.de/xsd/net_file.xsd">

    <location netOffset="-425332.75,-4419364.92" convBoundary="0.00,15973.84,11167.45,16967.68" origBoundary="116.124415,39.922443,116.328583,40.102370" projParameter="+proj=utm +zone=50 +ellps=WGS84 +datum=WGS84 +units=m +no_defs"/>

    <type id="highway.bridleway" priority="1" numLanes="1" speed="2.78" allow="pedestrian" oneway="1" width="2.00"/>
    <type id="highway.bus_guideway" priority="1" numLanes="1" speed="27.78" allow="bus" oneway="1"/>
    <type id="highway.cycleway" priority="1" numLanes="1" speed="8.33" allow="bicycle" oneway="0" width="1.00"/>
    <type id="highway.footway" priority="1" numLanes="1" speed="2.78" allow="pedestrian" oneway="1" width="2.00"/>
    <type id="highway.ford" priority="1" numLanes="1" speed="2.78" allow="army" oneway="0"/>
    <type id="highway.living_street" priority="2" numLanes="1" speed="2.78" disallow="tram rail_urban rail rail_electric rail_fast ship" oneway="0"/>
    <type id="highway.motorway" priority="14" numLanes="2" speed="39.44" allow="private emergency authority army vip passenger hov taxi bus coach delivery truck trailer motorcycle evehicle custom1 custom2" oneway="1"/>
    <type id="highway.motorway_link" priority="9" numLanes="1" speed="22.22" allow="private emergency authority army vip passenger hov taxi bus coach delivery truck trailer motorcycle evehicle custom1 custom2" oneway="1"/>
    <type id="highway.path" priority="1" numLanes="1" speed="2.78" allow="pedestrian bicycle" oneway="1" width="2.00"/>
    <type id="highway.pedestrian" priority="1" numLanes="1" speed="2.78" allow="pedestrian" oneway="1" width="2.00"/>
    <type id="highway.primary" priority="12" numLanes="2" speed="27.78" disallow="tram rail_urban rail rail_electric rail_fast ship" oneway="0"/>
    <type id="highway.primary_link" priority="7" numLanes="1" speed="22.22" disallow="tram rail_urban rail rail_electric rail_fast ship" oneway="0"/>
    <type id="highway.raceway" priority="15" numLanes="2" speed="83.33" allow="vip" oneway="0"/>
    <type id="highway.residential" priority="3" numLanes="1" speed="13.89" disallow="tram rail_urban rail rail_electric rail_fast ship" oneway="0"/>
    <type id="highway.secondary" priority="11" numLanes="1" speed="27.78" disallow="tram rail_urban rail rail_electric rail_fast ship" oneway="0"/>
    <type id="highway.secondary_link" priority="6" numLanes="1" speed="22.22" disallow="tram rail_urban rail rail_electric rail_fast ship" oneway="0"/>
    <type id="highway.service" priority="1" numLanes="1" speed="5.56" allow="pedestrian delivery bicycle" oneway="0"/>
    <type id="highway.stairs" priority="1" numLanes="1" speed="1.39" allow="pedestrian" oneway="1" width="2.00"/>
    <type id="highway.step" priority="1" numLanes="1" speed="1.39" allow="pedestrian" oneway="1" width="2.00"/>
    <type id="highway.steps" priority="1" numLanes="1" speed="1.39" allow="pedestrian" oneway="1" width="2.00"/>
    <type id="highway.tertiary" priority="10" numLanes="1" speed="22.22" disallow="tram rail_urban rail rail_electric rail_fast ship" oneway="0"/>
    <type id="highway.tertiary_link" priority="5" numLanes="1" speed="22.22" disallow="tram rail_urban rail rail_electric rail_fast ship" oneway="0"/>
    <type id="highway.track" priority="1" numLanes="1" speed="5.56" disallow="tram rail_urban rail rail_electric rail_fast ship" oneway="0"/>
    <type id="highway.trunk" priority="13" numLanes="2" speed="27.78" disallow="pedestrian bicycle tram rail_urban rail rail_electric rail_fast ship" oneway="0"/>
    <type id="highway.trunk_link" priority="8" numLanes="1" speed="22.22" disallow="pedestrian bicycle tram rail_urban rail rail_electric rail_fast ship" oneway="0"/>
    <type id="highway.unclassified" priority="4" numLanes="1" speed="13.89" disallow="tram rail_urban rail rail_electric rail_fast ship" oneway="0"/>
    <type id="highway.unsurfaced" priority="1" numLanes="1" speed="8.33" disallow="tram rail_urban rail rail_electric rail_fast ship" oneway="0"/>
    <type id="railway.highspeed" priority="21" numLanes="1" speed="69.44" allow="rail_fast" oneway="1"/>
    <type id="railway.light_rail" priority="19" numLanes="1" speed="27.78" allow="rail_urban" oneway="1"/>
    <type id="railway.preserved" priority="16" numLanes="1" speed="27.78" allow="rail" oneway="1"/>
    <type id="railway.rail" priority="20" numLanes="1" speed="44.44" allow="rail" oneway="1"/>
    <type id="railway.subway" priority="18" numLanes="1" speed="27.78" allow="rail_urban" oneway="1"/>
    <type id="railway.tram" priority="17" numLanes="1" speed="13.89" allow="tram" oneway="1"/>

    <edge id=":JC1_0" function="internal">
        <lane id=":JC1_0_0" index="0" allow="bicycle" speed="20.84" length="4.15" width="2.00" shape="9724.84,16717.74 9721.55,16716.77 9720.83,16716.74"/>
    </edge>
    <edge id=":JC1_1" function="internal">
        <lane id=":JC1_1_0" index="0" allow="bicycle" speed="13.89" length="54.42" width="2.00" shape="9724.84,16717.74 9675.25,16695.33"/>
    </edge>
    <edge id=":JC1_2" function="internal">
        <lane id=":JC1_2_0" index="0" allow="bicycle" speed="20.84" length="70.76" width="2.00" shape="9724.84,16717.74 9717.01,16707.36 9708.13,16687.03 9701.43,16665.75 9700.15,16652.54"/>
    </edge>
    <edge id=":JC1_3" function="internal">
        <lane id=":JC1_3_0" index="0" disallow="pedestrian bicycle tram rail_urban rail rail_electric rail_fast ship" speed="20.84" length="9.50" width="3.50" shape="9726.98,16712.18 9722.46,16711.14 9718.67,16711.77 9717.86,16712.38"/>
    </edge>
    <edge id=":JC1_4" function="internal">
        <lane id=":JC1_4_0" index="0" disallow="pedestrian bicycle tram rail_urban rail rail_electric rail_fast ship" speed="20.84" length="11.92" width="3.50" shape="9726.98,16712.18 9721.03,16710.58 9716.23,16710.81 9715.40,16711.28"/>
    </edge>
    <edge id=":JC1_5" function="internal">
        <lane id=":JC1_5_0" index="0" disallow="pedestrian bicycle" speed="13.89" length="54.36" width="3.50" shape="9726.98,16712.18 9676.23,16692.76"/>
        <lane id=":JC1_5_1" index="1" disallow="pedestrian bicycle" speed="13.89" length="54.36" width="3.50" shape="9728.24,16708.92 9677.47,16689.48"/>
        <lane id=":JC1_5_2" index="2" disallow="pedestrian bicycle" speed="13.89" length="54.36" width="3.50" shape="9729.50,16705.65 9678.72,16686.21"/>
        <lane id=":JC1_5_3" index="3" disallow="pedestrian bicycle" speed="13.89" length="54.36" width="3.50" shape="9730.75,16702.38 9679.96,16682.94"/>
    </edge>
    <edge id=":JC1_9" function="internal">
        <lane id=":JC1_9_0" index="0" disallow="pedestrian bicycle tram rail_urban rail rail_electric rail_fast ship" speed="20.84" length="52.63" width="3.50" shape="9732.01,16699.12 9718.94,16691.96 9711.33,16682.65 9709.15,16671.18 9712.42,16657.54"/>
    </edge>
    <edge id=":JC1_10" function="internal">
        <lane id=":JC1_10_0" index="0" disallow="pedestrian bicycle tram rail_urban rail rail_electric rail_fast ship" speed="20.84" length="45.72" width="3.50" shape="9732.01,16699.12 9720.37,16692.52 9713.77,16683.61 9712.20,16672.39 9714.66,16662.77"/>
    </edge>
    <edge id=":JC1_44" function="internal">
        <lane id=":JC1_44_0" index="0" allow="bicycle" speed="20.84" length="5.93" width="2.00" shape="9720.83,16716.74 9718.96,16716.67 9717.07,16717.43 9715.89,16719.07"/>
    </edge>
    <edge id=":JC1_45" function="internal">
        <lane id=":JC1_45_0" index="0" disallow="pedestrian bicycle tram rail_urban rail rail_electric rail_fast ship" speed="20.84" length="7.38" width="3.50" shape="9717.86,16712.38 9715.63,16714.07 9713.34,16718.05"/>
    </edge>
    <edge id=":JC1_46" function="internal">
        <lane id=":JC1_46_0" index="0" disallow="pedestrian bicycle tram rail_urban rail rail_electric rail_fast ship" speed="20.84" length="7.85" width="3.50" shape="9715.40,16711.28 9712.58,16712.87 9710.09,16716.75"/>
    </edge>
    <edge id=":JC1_47" function="internal">
        <lane id=":JC1_47_0" index="0" disallow="pedestrian bicycle tram rail_urban rail rail_electric rail_fast ship" speed="20.84" length="4.04" width="3.50" shape="9714.66,16662.77 9715.66,16658.86"/>
    </edge>
    <edge id=":JC1_11" function="internal">
        <lane id=":JC1_11_0" index="0" allow="bicycle" speed="20.84" length="2.46" width="2.00" shape="9739.05,16668.39 9738.56,16670.34 9738.63,16670.78"/>
    </edge>
    <edge id=":JC1_12" function="internal">
        <lane id=":JC1_12_0" index="0" allow="bicycle" speed="27.78" length="55.72" width="2.00" shape="9739.05,16668.39 9715.89,16719.07"/>
    </edge>
    <edge id=":JC1_13" function="internal">
        <lane id=":JC1_13_0" index="0" allow="bicycle" speed="20.84" length="3.31" width="2.00" shape="9739.05,16668.39 9736.45,16670.45"/>
    </edge>
    <edge id=":JC1_14" function="internal">
        <lane id=":JC1_14_0" index="0" disallow="pedestrian bicycle" speed="20.84" length="4.85" width="3.50" shape="9736.50,16667.35 9735.19,16671.80 9735.19,16672.01"/>
    </edge>
    <edge id=":JC1_15" function="internal">
        <lane id=":JC1_15_0" index="0" disallow="pedestrian bicycle" speed="20.84" length="6.16" width="3.50" shape="9736.50,16667.35 9734.62,16673.22"/>
    </edge>
    <edge id=":JC1_16" function="internal">
        <lane id=":JC1_16_0" index="0" disallow="pedestrian bicycle tram rail_urban rail rail_electric rail_fast ship" speed="27.78" length="55.77" width="3.50" shape="9736.50,16667.35 9713.34,16718.05"/>
        <lane id=":JC1_16_1" index="1" disallow="pedestrian bicycle tram rail_urban rail rail_electric rail_fast ship" speed="27.78" length="55.77" width="3.50" shape="9733.26,16666.03 9710.09,16716.75"/>
        <lane id=":JC1_16_2" index="2" disallow="pedestrian bicycle tram rail_urban rail rail_electric rail_fast ship" speed="27.78" length="55.77" width="3.50" shape="9730.02,16664.71 9706.84,16715.45"/>
        <lane id=":JC1_16_3" index="3" disallow="pedestrian bicycle tram rail_urban rail rail_electric rail_fast ship" speed="27.78" length="55.77" width="3.50" shape="9726.77,16663.39 9703.59,16714.15"/>
    </edge>
    <edge id=":JC1_20" function="internal">
        <lane id=":JC1_20_0" index="0" disallow="pedestrian bicycle" speed="20.84" length="6.17" width="3.50" shape="9723.53,16662.07 9720.48,16667.43"/>
    </edge>
    <edge id=":JC1_21" function="internal">
        <lane id=":JC1_21_0" index="0" disallow="pedestrian bicycle" speed="20.84" length="6.20" width="3.50" shape="9723.53,16662.07 9720.38,16667.41"/>
    </edge>
    <edge id=":JC1_48" function="internal">
        <lane id=":JC1_48_0" index="0" allow="bicycle" speed="20.84" length="4.86" width="2.00" shape="9738.63,16670.78 9738.82,16671.96 9739.83,16673.27 9741.58,16674.25"/>
    </edge>
    <edge id=":JC1_49" function="internal">
        <lane id=":JC1_49_0" index="0" allow="bicycle" speed="20.84" length="66.95" width="2.00" shape="9736.45,16670.45 9728.83,16676.51 9709.01,16686.13 9688.25,16693.61 9675.25,16695.33"/>
    </edge>
    <edge id=":JC1_50" function="internal">
        <lane id=":JC1_50_0" index="0" disallow="pedestrian bicycle" speed="20.84" length="9.67" width="3.50" shape="9735.19,16672.01 9735.24,16675.35 9736.66,16678.02 9739.44,16679.80"/>
    </edge>
    <edge id=":JC1_51" function="internal">
        <lane id=":JC1_51_0" index="0" disallow="pedestrian bicycle" speed="20.84" length="11.46" width="3.50" shape="9734.62,16673.22 9734.27,16677.79 9735.46,16681.07 9738.19,16683.07"/>
    </edge>
    <edge id=":JC1_52" function="internal">
        <lane id=":JC1_52_0" index="0" disallow="pedestrian bicycle" speed="20.84" length="48.62" width="3.50" shape="9720.48,16667.43 9715.86,16675.53 9706.04,16683.50 9694.07,16685.97 9679.96,16682.94"/>
    </edge>
    <edge id=":JC1_53" function="internal">
        <lane id=":JC1_53_0" index="0" disallow="pedestrian bicycle" speed="20.84" length="45.81" width="3.50" shape="9720.38,16667.41 9716.43,16674.11 9707.01,16681.06 9695.27,16682.91 9681.21,16679.67"/>
    </edge>
    <edge id=":JC1_22" function="internal">
        <lane id=":JC1_22_0" index="0" allow="bicycle" speed="20.84" length="13.39" width="2.00" shape="9689.55,16657.75 9692.96,16658.48 9695.87,16657.85 9698.26,16655.87 9700.15,16652.54"/>
    </edge>
    <edge id=":JC1_23" function="internal">
        <lane id=":JC1_23_0" index="0" allow="bicycle" speed="13.89" length="54.58" width="2.00" shape="9689.55,16657.75 9741.58,16674.25"/>
    </edge>
    <edge id=":JC1_24" function="internal">
        <lane id=":JC1_24_0" index="0" allow="bicycle" speed="20.84" length="63.26" width="2.00" shape="9689.55,16657.75 9697.63,16667.51 9707.07,16686.50 9714.33,16706.45 9715.33,16714.54"/>
    </edge>
    <edge id=":JC1_25" function="internal">
        <lane id=":JC1_25_0" index="0" disallow="pedestrian bicycle tram rail_urban rail rail_electric rail_fast ship" speed="20.84" length="17.75" width="3.50" shape="9688.57,16660.32 9693.15,16661.31 9697.03,16660.51 9700.21,16657.94 9702.70,16653.58"/>
    </edge>
    <edge id=":JC1_26" function="internal">
        <lane id=":JC1_26_0" index="0" disallow="pedestrian bicycle tram rail_urban rail rail_electric rail_fast ship" speed="20.84" length="7.24" width="3.50" shape="9688.57,16660.32 9694.58,16661.86 9695.62,16661.78"/>
    </edge>
    <edge id=":JC1_27" function="internal">
        <lane id=":JC1_27_0" index="0" disallow="pedestrian bicycle" speed="13.89" length="54.45" width="3.50" shape="9688.57,16660.32 9739.44,16679.80"/>
        <lane id=":JC1_27_1" index="1" disallow="pedestrian bicycle" speed="13.89" length="54.45" width="3.50" shape="9687.33,16663.60 9738.19,16683.07"/>
        <lane id=":JC1_27_2" index="2" disallow="pedestrian bicycle" speed="13.89" length="54.45" width="3.50" shape="9686.08,16666.87 9736.93,16686.33"/>
        <lane id=":JC1_27_3" index="3" disallow="pedestrian bicycle" speed="13.89" length="54.45" width="3.50" shape="9684.84,16670.14 9735.67,16689.60"/>
    </edge>
    <edge id=":JC1_31" function="internal">
        <lane id=":JC1_31_0" index="0" disallow="pedestrian tram rail_urban rail rail_electric rail_fast ship" speed="20.84" length="47.87" width="3.50" shape="9683.59,16673.41 9696.65,16680.45 9704.34,16689.59 9706.65,16700.82 9704.49,16710.20"/>
    </edge>
    <edge id=":JC1_32" function="internal">
        <lane id=":JC1_32_0" index="0" disallow="pedestrian tram rail_urban rail rail_electric rail_fast ship" speed="20.84" length="45.01" width="3.50" shape="9683.59,16673.41 9695.22,16679.90 9701.89,16688.64 9703.60,16699.62 9701.30,16708.93"/>
    </edge>
    <edge id=":JC1_54" function="internal">
        <lane id=":JC1_54_0" index="0" allow="bicycle" speed="20.84" length="4.57" width="2.00" shape="9715.33,16714.54 9715.89,16719.07"/>
    </edge>
    <edge id=":JC1_55" function="internal">
        <lane id=":JC1_55_0" index="0" disallow="pedestrian bicycle tram rail_urban rail rail_electric rail_fast ship" speed="20.84" length="13.33" width="3.50" shape="9695.62,16661.78 9699.47,16661.47 9703.26,16659.15 9705.94,16654.90"/>
    </edge>
    <edge id=":JC1_56" function="internal">
        <lane id=":JC1_56_0" index="0" disallow="pedestrian tram rail_urban rail rail_electric rail_fast ship" speed="20.84" length="4.05" width="3.50" shape="9704.49,16710.20 9703.59,16714.15"/>
    </edge>
    <edge id=":JC1_57" function="internal">
        <lane id=":JC1_57_0" index="0" disallow="pedestrian tram rail_urban rail rail_electric rail_fast ship" speed="20.84" length="4.04" width="3.50" shape="9701.30,16708.93 9700.34,16712.85"/>
    </edge>
    <edge id=":JC1_33" function="internal">
        <lane id=":JC1_33_0" index="0" allow="bicycle" speed="20.84" length="3.66" width="2.00" shape="9676.89,16703.47 9677.77,16700.51 9677.77,16699.94"/>
    </edge>
    <edge id=":JC1_34" function="internal">
        <lane id=":JC1_34_0" index="0" allow="bicycle" speed="27.78" length="55.98" width="2.00" shape="9676.89,16703.47 9700.15,16652.54"/>
    </edge>
    <edge id=":JC1_35" function="internal">
        <lane id=":JC1_35_0" index="0" allow="bicycle" speed="20.84" length="5.82" width="2.00" shape="9676.89,16703.47 9681.39,16699.77"/>
    </edge>
    <edge id=":JC1_36" function="internal">
        <lane id=":JC1_36_0" index="0" disallow="pedestrian bicycle tram rail_urban rail rail_electric rail_fast ship" speed="20.84" length="9.55" width="3.50" shape="9679.45,16704.49 9680.61,16700.34 9680.47,16697.00 9679.52,16695.36"/>
    </edge>
    <edge id=":JC1_37" function="internal">
        <lane id=":JC1_37_0" index="0" disallow="pedestrian bicycle tram rail_urban rail rail_electric rail_fast ship" speed="20.84" length="12.44" width="3.50" shape="9679.45,16704.49 9681.18,16698.91 9681.43,16694.55 9680.61,16692.48"/>
    </edge>
    <edge id=":JC1_38" function="internal">
        <lane id=":JC1_38_0" index="0" disallow="pedestrian bicycle tram rail_urban rail rail_electric rail_fast ship" speed="27.78" length="55.93" width="3.50" shape="9679.45,16704.49 9702.70,16653.58"/>
        <lane id=":JC1_38_1" index="1" disallow="pedestrian tram rail_urban rail rail_electric rail_fast ship" speed="27.78" length="55.93" width="3.50" shape="9682.70,16705.79 9705.94,16654.90"/>
        <lane id=":JC1_38_2" index="2" disallow="pedestrian tram rail_urban rail rail_electric rail_fast ship" speed="27.78" length="55.93" width="3.50" shape="9685.95,16707.09 9709.18,16656.22"/>
        <lane id=":JC1_38_3" index="3" disallow="pedestrian bicycle tram rail_urban rail rail_electric rail_fast ship" speed="27.78" length="55.93" width="3.50" shape="9689.20,16708.39 9712.42,16657.54"/>
    </edge>
    <edge id=":JC1_42" function="internal">
        <lane id=":JC1_42_0" index="0" disallow="pedestrian bicycle tram rail_urban rail rail_electric rail_fast ship" speed="20.84" length="8.68" width="3.50" shape="9692.44,16709.69 9696.72,16702.14"/>
    </edge>
    <edge id=":JC1_43" function="internal">
        <lane id=":JC1_43_0" index="0" disallow="pedestrian bicycle tram rail_urban rail rail_electric rail_fast ship" speed="20.84" length="8.79" width="3.50" shape="9692.44,16709.69 9696.89,16702.11"/>
    </edge>
    <edge id=":JC1_58" function="internal">
        <lane id=":JC1_58_0" index="0" allow="bicycle" speed="20.84" length="5.72" width="2.00" shape="9677.77,16699.94 9677.79,16698.17 9676.95,16696.44 9675.25,16695.33"/>
    </edge>
    <edge id=":JC1_59" function="internal">
        <lane id=":JC1_59_0" index="0" allow="bicycle" speed="20.84" length="66.16" width="2.00" shape="9681.39,16699.77 9687.23,16694.97 9707.36,16684.57 9728.44,16676.30 9741.58,16674.25"/>
    </edge>
    <edge id=":JC1_60" function="internal">
        <lane id=":JC1_60_0" index="0" disallow="pedestrian bicycle tram rail_urban rail rail_electric rail_fast ship" speed="20.84" length="4.29" width="3.50" shape="9679.52,16695.36 9679.00,16694.47 9676.23,16692.76"/>
    </edge>
    <edge id=":JC1_61" function="internal">
        <lane id=":JC1_61_0" index="0" disallow="pedestrian bicycle tram rail_urban rail rail_electric rail_fast ship" speed="20.84" length="4.48" width="3.50" shape="9680.61,16692.48 9680.19,16691.41 9677.47,16689.48"/>
    </edge>
    <edge id=":JC1_62" function="internal">
        <lane id=":JC1_62_0" index="0" disallow="pedestrian bicycle tram rail_urban rail rail_electric rail_fast ship" speed="20.84" length="45.52" width="3.50" shape="9696.72,16702.14 9699.92,16696.50 9709.62,16688.75 9721.54,16686.45 9735.67,16689.60"/>
    </edge>
    <edge id=":JC1_63" function="internal">
        <lane id=":JC1_63_0" index="0" disallow="pedestrian bicycle tram rail_urban rail rail_electric rail_fast ship" speed="20.84" length="42.61" width="3.50" shape="9696.89,16702.11 9699.36,16697.92 9708.65,16691.20 9720.34,16689.51 9734.42,16692.86"/>
    </edge>
    <edge id=":JC1_c0" function="crossing" crossingEdges="EE2 EW2">
        <lane id=":JC1_c0_0" index="0" allow="pedestrian" speed="1.00" length="48.60" width="4.00" shape="9740.07,16672.59 9722.62,16717.95"/>
    </edge>
    <edge id=":JC1_c1" function="crossing" crossingEdges="ES3 EN3">
        <lane id=":JC1_c1_0" index="0" allow="pedestrian" speed="1.00" length="44.00" width="4.00" shape="9698.47,16654.02 9739.22,16670.62"/>
    </edge>
    <edge id=":JC1_c2" function="crossing" crossingEdges="EW1 EE1">
        <lane id=":JC1_c2_0" index="0" allow="pedestrian" speed="1.00" length="42.20" width="4.00" shape="9676.76,16696.97 9691.77,16657.53"/>
    </edge>
    <edge id=":JC1_c3" function="crossing" crossingEdges="EN2 ES2">
        <lane id=":JC1_c3_0" index="0" allow="pedestrian" speed="1.00" length="44.00" width="4.00" shape="9717.56,16717.58 9676.71,16701.24"/>
    </edge>
    <edge id=":JC1_w0" function="walkingarea">
        <lane id=":JC1_w0_0" index="0" allow="pedestrian" speed="1.00" length="4.67" width="4.00" shape="9718.30,16715.73 9716.82,16719.44 9718.67,16720.18 9723.77,16720.54 9724.49,16718.67 9720.75,16717.23"/>
    </edge>
    <edge id=":JC1_w1" function="walkingarea">
        <lane id=":JC1_w1_0" index="0" allow="pedestrian" speed="1.00" length="2.88" width="4.00" shape="9738.21,16671.88 9741.94,16673.31 9742.66,16671.45 9741.82,16669.52 9739.97,16668.76 9738.46,16672.47"/>
    </edge>
    <edge id=":JC1_w2" function="walkingarea">
        <lane id=":JC1_w2_0" index="0" allow="pedestrian" speed="1.00" length="6.36" width="4.00" shape="9697.71,16655.87 9699.22,16652.17 9697.37,16651.41 9690.62,16654.95 9689.90,16656.82 9693.64,16658.24"/>
    </edge>
    <edge id=":JC1_w3" function="walkingarea">
        <lane id=":JC1_w3_0" index="0" allow="pedestrian" speed="1.00" length="4.15" width="4.00" shape="9678.63,16697.68 9674.89,16696.26 9674.18,16698.13 9674.11,16702.35 9675.96,16703.10 9677.45,16699.38"/>
    </edge>
    <edge id=":JC10_0" function="internal">
        <lane id=":JC10_0_0" index="0" allow="bicycle" speed="13.89" length="28.25" width="2.00" shape="10663.11,16760.70 10652.83,16787.02"/>
    </edge>
    <edge id=":JC10_1" function="internal">
        <lane id=":JC10_1_0" index="0" allow="bicycle" speed="13.89" length="34.71" width="2.00" shape="10663.11,16760.70 10658.07,16769.85 10651.20,16775.17 10642.49,16776.69 10635.91,16775.24"/>
    </edge>
    <edge id=":JC10_2" function="internal">
        <lane id=":JC10_2_0" index="0" disallow="pedestrian bicycle" speed="13.89" length="28.24" width="3.50" shape="10660.53,16759.74 10650.25,16786.05"/>
        <lane id=":JC10_2_1" index="1" disallow="pedestrian" speed="13.89" length="28.24" width="3.50" shape="10657.25,16758.52 10646.98,16784.82"/>
    </edge>
    <edge id=":JC10_4" function="internal">
        <lane id=":JC10_4_0" index="0" disallow="pedestrian bicycle" speed="13.89" length="24.79" width="3.50" shape="10653.97,16757.29 10649.92,16765.54 10645.06,16770.71 10639.39,16772.79 10636.95,16772.42"/>
    </edge>
    <edge id=":JC10_5" function="internal">
        <lane id=":JC10_5_0" index="0" disallow="pedestrian" speed="13.89" length="21.87" width="3.50" shape="10653.97,16757.29 10650.45,16764.10 10645.97,16768.24 10640.53,16769.72 10638.11,16769.26"/>
    </edge>
    <edge id=":JC10_18" function="internal">
        <lane id=":JC10_18_0" index="0" allow="bicycle" speed="13.89" length="4.04" width="2.00" shape="10635.91,16775.24 10631.96,16774.38"/>
    </edge>
    <edge id=":JC10_19" function="internal">
        <lane id=":JC10_19_0" index="0" disallow="pedestrian bicycle" speed="13.89" length="4.08" width="3.50" shape="10636.95,16772.42 10632.91,16771.80"/>
    </edge>
    <edge id=":JC10_20" function="internal">
        <lane id=":JC10_20_0" index="0" disallow="pedestrian" speed="13.89" length="4.06" width="3.50" shape="10638.11,16769.26 10634.12,16768.52"/>
    </edge>
    <edge id=":JC10_6" function="internal">
        <lane id=":JC10_6_0" index="0" allow="bicycle" speed="13.89" length="2.40" width="2.00" shape="10638.59,16756.36 10640.53,16756.78 10640.94,16756.70"/>
    </edge>
    <edge id=":JC10_7" function="internal">
        <lane id=":JC10_7_0" index="0" allow="bicycle" speed="13.89" length="34.56" width="2.00" shape="10638.59,16756.36 10647.97,16761.40 10653.46,16768.19 10655.08,16776.73 10653.69,16783.07"/>
    </edge>
    <edge id=":JC10_8" function="internal">
        <lane id=":JC10_8_0" index="0" disallow="pedestrian bicycle" speed="13.89" length="7.49" width="3.50" shape="10637.64,16758.94 10640.77,16759.61 10643.36,16759.12 10644.66,16758.09"/>
    </edge>
    <edge id=":JC10_9" function="internal">
        <lane id=":JC10_9_0" index="0" disallow="pedestrian" speed="13.89" length="13.25" width="3.50" shape="10636.43,16762.23 10641.06,16763.22 10644.91,16762.49 10647.96,16760.05 10648.29,16759.44"/>
    </edge>
    <edge id=":JC10_10" function="internal">
        <lane id=":JC10_10_0" index="0" disallow="pedestrian bicycle" speed="13.89" length="27.30" width="3.50" shape="10636.43,16762.23 10644.80,16766.48 10649.89,16771.86 10651.71,16778.39 10651.01,16782.06"/>
    </edge>
    <edge id=":JC10_11" function="internal">
        <lane id=":JC10_11_0" index="0" disallow="pedestrian" speed="13.89" length="24.43" width="3.50" shape="10636.43,16762.23 10643.36,16765.95 10647.43,16770.95 10648.63,16777.24 10647.84,16780.87"/>
    </edge>
    <edge id=":JC10_21" function="internal">
        <lane id=":JC10_21_0" index="0" allow="bicycle" speed="13.89" length="4.84" width="2.00" shape="10640.94,16756.70 10642.14,16756.47 10643.42,16755.45 10644.37,16753.71"/>
    </edge>
    <edge id=":JC10_22" function="internal">
        <lane id=":JC10_22_0" index="0" allow="bicycle" speed="13.89" length="4.04" width="2.00" shape="10653.69,16783.07 10652.83,16787.02"/>
    </edge>
    <edge id=":JC10_23" function="internal">
        <lane id=":JC10_23_0" index="0" disallow="pedestrian bicycle" speed="13.89" length="4.17" width="3.50" shape="10644.66,16758.09 10645.42,16757.48 10646.95,16754.67"/>
    </edge>
    <edge id=":JC10_24" function="internal">
        <lane id=":JC10_24_0" index="0" disallow="pedestrian" speed="13.89" length="4.04" width="3.50" shape="10648.29,16759.44 10650.23,16755.89"/>
    </edge>
    <edge id=":JC10_25" function="internal">
        <lane id=":JC10_25_0" index="0" disallow="pedestrian bicycle" speed="13.89" length="4.06" width="3.50" shape="10651.01,16782.06 10650.25,16786.05"/>
    </edge>
    <edge id=":JC10_26" function="internal">
        <lane id=":JC10_26_0" index="0" disallow="pedestrian" speed="13.89" length="4.04" width="3.50" shape="10647.84,16780.87 10646.98,16784.82"/>
    </edge>
    <edge id=":JC10_12" function="internal">
        <lane id=":JC10_12_0" index="0" allow="bicycle" speed="13.89" length="2.87" width="2.00" shape="10634.85,16780.26 10635.27,16778.31 10635.09,16777.46"/>
    </edge>
    <edge id=":JC10_13" function="internal">
        <lane id=":JC10_13_0" index="0" allow="bicycle" speed="13.89" length="28.21" width="2.00" shape="10634.85,16780.26 10644.37,16753.71"/>
    </edge>
    <edge id=":JC10_14" function="internal">
        <lane id=":JC10_14_0" index="0" disallow="pedestrian bicycle" speed="13.89" length="3.85" width="3.50" shape="10637.43,16781.23 10638.11,16778.08 10637.98,16777.46"/>
    </edge>
    <edge id=":JC10_15" function="internal">
        <lane id=":JC10_15_0" index="0" disallow="pedestrian bicycle" speed="13.89" length="28.22" width="3.50" shape="10637.43,16781.23 10646.95,16754.67"/>
        <lane id=":JC10_15_1" index="1" disallow="pedestrian" speed="13.89" length="28.22" width="3.50" shape="10640.70,16782.46 10650.23,16755.89"/>
    </edge>
    <edge id=":JC10_17" function="internal">
        <lane id=":JC10_17_0" index="0" disallow="pedestrian" speed="13.89" length="6.77" width="3.50" shape="10640.70,16782.46 10643.16,16780.70 10645.02,16780.50 10646.29,16781.88"/>
    </edge>
    <edge id=":JC10_27" function="internal">
        <lane id=":JC10_27_0" index="0" allow="bicycle" speed="13.89" length="4.62" width="2.00" shape="10635.09,16777.46 10634.93,16776.68 10633.82,16775.37 10631.96,16774.38"/>
    </edge>
    <edge id=":JC10_28" function="internal">
        <lane id=":JC10_28_0" index="0" disallow="pedestrian bicycle" speed="13.89" length="8.09" width="3.50" shape="10637.98,16777.46 10637.58,16775.46 10635.85,16773.37 10632.91,16771.80"/>
    </edge>
    <edge id=":JC10_29" function="internal">
        <lane id=":JC10_29_0" index="0" disallow="pedestrian" speed="13.89" length="3.02" width="3.50" shape="10646.29,16781.88 10646.98,16784.82"/>
    </edge>
    <edge id=":JC10_c0" function="crossing" crossingEdges="ES12 EN12">
        <lane id=":JC10_c0_0" index="0" allow="pedestrian" speed="1.00" length="22.00" width="4.00" shape="10642.73,16755.23 10663.35,16762.93"/>
    </edge>